@<TRIPOS>MOLECULE
IOT
    8    7    1    0    0
SMALL
NO_CHARGES
****
Energy = 0

@<TRIPOS>ATOM
      1  _CH3       1.577     38.796    41.340    C    1  IOT        0.000000
      2  C          1.899     37.291    41.283    C    1  IOT        0.000000
      3  _CH2       2.198     36.725    42.684    C    1  IOT        0.000000
      4  _CH3       3.041     36.925    40.317    C    1  IOT        0.000000
      5  _CH3       0.623     36.718    40.638    C    1  IOT        0.000000
      6  _HC        2.248     35.192    42.816    C    1  IOT        0.000000
      7  _CH3       3.252     34.572    43.806    C    1  IOT        0.000000
      8  _CH3       0.911     34.430    42.883    C    1  IOT        0.000000
@<TRIPOS>BOND
    1     1     2  1
    2     2     3  1
    3     2     4  1
    4     2     5  1
    5     3     6  1
    6     6     7  1
    7     6     8  1

@<TRIPOS>SUBSTRUCTURE
1 ****        1 TEMP                        0 ****  **** 0 ROOT

#generated by VMD
