@<TRIPOS>MOLECULE
NDE
   10    9    1    0    0
SMALL
NO_CHARGES
****
Energy = 0

@<TRIPOS>ATOM
      1  _CH3         0.0000    0.0000    0.0000    C    1  NDE        0.000000
      2  _CH2        -1.5000    0.0000    0.0000    C    1  NDE        0.000000
      3  _CH2        -2.2500    1.2990    0.0000    C    1  NDE        0.000000
      4  _CH2        -2.3180    2.1340    1.2440    C    1  NDE        0.000000
      5  _CH2        -2.4830    1.4760    2.5820    C    1  NDE        0.000000
      6  _CH2        -2.1680    0.0190    2.7440    C    1  NDE        0.000000
      7  _CH2        -3.1320   -1.0170    2.2470    C    1  NDE        0.000000
      8  _CH2        -4.5860   -0.9210    2.6030    C    1  NDE        0.000000
      9  _CH2        -5.4760    0.0580    1.8970    C    1  NDE        0.000000
     10  _CH3        -4.8830    1.0740    0.9660    C    1  NDE        0.000000
@<TRIPOS>BOND
    1     1     2  1
    2     2     3  1
    3     3     4  1
    4     4     5  1
    5     5     6  1
    6     6     7  1
    7     7     8  1
    8     8     9  1
    9     9    10  1

@<TRIPOS>SUBSTRUCTURE
1 ****        1 TEMP                        0 ****  **** 0 ROOT

#generated by VMD
